src/federates/gridpack/one_phase/raw_files/IEEE3_phase_B.raw
0, 100.000
GLM-derived REVIEW3 Phase B (per-phase, Vbase=2.4018 kV LN, SBASE=100 MVA)
Created 2026-02-25
      1, 3,    0.00000000,   0.00000000,    0.0000,    0.0000,   1,1.00000,   0.0000,'BUS-NODE1_B  ',2.4018,   1
      2, 1,    0.00000000,   0.00000000,    0.0000,    0.0000,   1,1.00000,   0.0000,'BUS-NODE2_B  ',2.4018,   1
      3, 1,    0.00000000,   0.00000000,    0.0000,    0.0000,   1,1.00000,   0.0000,'BUS-NODE3_B  ',2.4018,   1
      4, 1,    0.12000000,  -0.09000000,    0.0000,    0.0000,   1,1.00000,   0.0000,'BUS-LOAD1_B  ',2.4018,   1
      5, 1,    0.12000000,   0.10500000,    0.0000,    0.0000,   1,1.00000,   0.0000,'BUS-LOAD2_B  ',2.4018,   1
0
      1,'1 ',     0.000,   0.000, 99990.000, -9999.000,1.00000,     0,   100.000,   0.00000,   1.00000,   0.00000,   0.00000,   1.00000,1, 100.0,     0.000,     0.000
0 / END OF GENERATOR DATA, BEGIN BRANCH DATA
      1,      2,'BL',   4.33385732, 17.33542928,  0.00000,   0.00,   0.00,   0.00,1.00000,  0.000, 0.00000, 0.00000, 0.00000, 0.00000, 1
      2,      3,'BL',   4.33385732, 17.33542928,  0.00000,   0.00,   0.00,   0.00,1.00000,  0.000, 0.00000, 0.00000, 0.00000, 0.00000, 1
      2,      4,'BL',   0.41039895,  1.64161315,  0.00000,   0.00,   0.00,   0.00,1.00000,  0.000, 0.00000, 0.00000, 0.00000, 0.00000, 1
      3,      5,'BL',   0.41039895,  1.64161315,  0.00000,   0.00,   0.00,   0.00,1.00000,  0.000, 0.00000, 0.00000, 0.00000, 0.00000, 1
0 / END OF BRANCH DATA, BEGIN TRANSFORMER DATA
0 / END OF TRANSFORMER DATA, BEGIN TRANSFORMER ADJUSTMENT DATA
0 / END OF TRANSFORMER ADJUSTMENT DATA, BEGIN AREA DATA
   1,      0,     0.0,  0.000,'            '
0 / END OF AREA DATA, BEGIN TWO-TERMINAL DC DATA
0 / END OF TWO-TERMINAL DC DATA, BEGIN SWITCHED SHUNT DATA
0 / END OF SWITCHED SHUNT DATA, BEGIN IMPEDANCE CORRECTION DATA
0 / END OF IMPEDANCE CORRECTION DATA, BEGIN MULTI-TERMINAL DC DATA
0 / END OF MULTI-TERMINAL DC DATA, BEGIN MULTI-SECTION LINE DATA
0 / END OF MULTI-SECTION LINE DATA, BEGIN ZONE DATA
    1,'ZONE_1      '
0 / END OF ZONE DATA, BEGIN INTER-AREA TRANSFER DATA
    1,    1,'1 ',    0.00
0 / END OF INTER-AREA TRANSFER DATA, BEGIN OWNER DATA
    1,'OWNER_1     '
0 / END OF OWNER DATA, BEGIN FACTS DEVICE DATA
0
